<?xml version="1.0" encoding="UTF-8"?>

<!-- generated on Tue  1 Sep 10:43:33 2020 by Eclipse SUMO netedit Version 1.6.0
<configuration xmlns:xsi="http://www.w3.org/2001/XMLSchema-instance" xsi:noNamespaceSchemaLocation="http://sumo.dlr.de/xsd/netconvertConfiguration.xsd">

    <input>
        <sumo-net-file value="/Users/charlie/a1726075/2020/s2/AML/sumoStuff/corridor/corridor.net.xml"/>
    </input>

    <output>
        <output-file value="/Users/charlie/a1726075/2020/s2/AML/sumoStuff/corridor/corridor.net.xml"/>
    </output>

    <processing>
        <geometry.min-radius.fix.railways value="false"/>
        <geometry.max-grade.fix value="false"/>
        <offset.disable-normalization value="true"/>
        <lefthand value="true"/>
    </processing>

    <junctions>
        <no-turnarounds value="true"/>
        <junctions.corner-detail value="5"/>
        <junctions.limit-turn-speed value="5.5"/>
        <rectangular-lane-cut value="false"/>
    </junctions>

    <pedestrian>
        <walkingareas value="false"/>
    </pedestrian>

    <netedit>
        <additional-files value="/Users/charlie/a1726075/2020/s2/AML/sumoStuff/corridor/corridor.add.xml"/>
        <route-files value="/Users/charlie/a1726075/2020/s2/AML/sumoStuff/corridor/corridor.rou.xml"/>
    </netedit>

    <report>
        <aggregate-warnings value="5"/>
    </report>

</configuration>
-->

<routes xmlns:xsi="http://www.w3.org/2001/XMLSchema-instance" xsi:noNamespaceSchemaLocation="http://sumo.dlr.de/xsd/routes_file.xsd">

    <route edges="mainNorth1 mainNorth2 mainNorth3 mainNorth4" color="red" id="route_0"/>
    <route edges="mainNorth1 mainNorth2 mainNorth3 EE2" color="red" id="route_1"/>
    <route edges="mainNorth1 mainNorth2 mainNorth3 EW2" color="red" id="route_2"/>
    <route edges="mainSouth1 mainSouth2 mainSouth3 mainSouth4" color="blue" id="route_3"/>
    <route edges="mainSouth1 mainSouth2 mainSouth3 WW2" color="blue" id="route_4"/>
    <route edges="mainSouth1 mainSouth2 mainSouth3 WE2" color="blue" id="route_5"/>

    <route edges="EW1 EW2" color="blue" id="route_6"/>
    <route edges="WW1 WW2" color="blue" id="route_7"/>
    <route edges="EE1 EE2" color="blue" id="route_8"/>
    <route edges="WE1 WE2" color="blue" id="route_9"/>

    <route edges="WW1 mainNorth2 CW" color="blue" id="route_10"/>
    <route edges="EW1 mainSouth2 CW" color="blue" id="route_11"/>


    <route edges="CE mainNorth3 mainNorth4" color="blue" id="route_12"/>
    <route edges="CE mainSouth3 mainSouth4" color="blue" id="route_13"/>

    <!-- old routes -->

    <!-- <route edges="EE1 mainSouth2 mainSouth3 WW2" color="yellow" id="route_0"/>
    <route edges="WW1 WW2" color="yellow" id="route_1"/>
    <route edges="WE1 mainNorth2 mainNorth3 mainNorth4" color="yellow" id="route_2"/>
    <route edges="mainSouth1 mainSouth2 mainSouth3 mainSouth4" color="blue" id="route_4"/>
    <route edges="mainNorth1 mainNorth2 mainNorth3 mainNorth4 mainSouth1 mainSouth2 mainSouth3 mainSouth4" color="blue" id="route_5"/>
    <route edges="mainSouth1 EE2" color="green" id="route_7"/>
    <route edges="EW1 mainSouth2 mainSouth3 WE2" color="green" id="route_8"/>
    <route edges="CE mainNorth3 EW2" color="green" id="route_9"/> -->

    <!-- old vehicles -->

    <!-- <vehicle id="vehicle_0" depart="0.00" route="route_4"/>
    <vehicle id="vehicle_1" depart="0.00" route="route_4"/>
    <vehicle id="vehicle_10" depart="0.00" route="route_9"/>
    <vehicle id="vehicle_11" depart="0.00" route="route_0"/>
    <vehicle id="vehicle_12" depart="0.00" route="route_9"/>
    <vehicle id="vehicle_13" depart="0.00" route="route_0"/>
    <vehicle id="vehicle_14" depart="0.00" route="route_2"/>
    <vehicle id="vehicle_15" depart="0.00" route="route_7"/>
    <vehicle id="vehicle_19" depart="0.00" route="route_1"/>
    <vehicle id="vehicle_2" depart="0.00" route="route_5"/>
    <vehicle id="vehicle_21" depart="0.00" route="route_7"/>
    <vehicle id="vehicle_22" depart="0.00" route="route_8"/>
    <vehicle id="vehicle_23" depart="0.00" route="route_8"/>
    <vehicle id="vehicle_24" depart="0.00" route="route_5"/>
    <vehicle id="vehicle_29" depart="0.00" route="route_5"/>
    <vehicle id="vehicle_3" depart="0.00" route="route_5"/>
    <vehicle id="vehicle_33" depart="0.00" route="route_5"/>
    <vehicle id="vehicle_34" depart="0.00" route="route_5"/>
    <vehicle id="vehicle_35" depart="0.00" route="route_5"/>
    <vehicle id="vehicle_36" depart="0.00" route="route_5"/>
    <vehicle id="vehicle_37" depart="0.00" route="route_5"/>
    <vehicle id="vehicle_38" depart="0.00" route="route_7"/>
    <vehicle id="vehicle_39" depart="0.00" route="route_5"/>
    <vehicle id="vehicle_4" depart="0.00" route="route_4"/>
    <vehicle id="vehicle_43" depart="0.00" route="route_5"/>
    <vehicle id="vehicle_44" depart="0.00" route="route_5"/>
    <vehicle id="vehicle_5" depart="0.00" route="route_4"/>
    <vehicle id="vehicle_7" depart="0.00" route="route_8"/>
    <vehicle id="vehicle_8" depart="0.00" route="route_5"/>
    <vehicle id="vehicle_9" depart="0.00" route="route_9"/>
    <vehicle id="vehicle_16" depart="5.00" route="route_0"/>
    <vehicle id="vehicle_45" depart="10.00" route="route_1"/>
    <vehicle id="vehicle_46" depart="10.00" route="route_1"/>
    <vehicle id="vehicle_6" depart="10.00" route="route_2"/>
    <vehicle id="vehicle_20" depart="30.00" route="route_2"/>
    <vehicle id="vehicle_25" depart="30.00" route="route_5"/>
    <vehicle id="vehicle_26" depart="30.00" route="route_5"/>
    <vehicle id="vehicle_27" depart="30.00" route="route_5"/>
    <vehicle id="vehicle_28" depart="30.00" route="route_5"/>
    <vehicle id="vehicle_17" depart="50.00" route="route_0"/>
    <vehicle id="vehicle_18" depart="50.00" route="route_0"/>
    <vehicle id="vehicle_30" depart="70.00" route="route_5"/>
    <vehicle id="vehicle_31" depart="70.00" route="route_5"/>
    <vehicle id="vehicle_32" depart="70.00" route="route_5"/>
    <vehicle id="vehicle_40" depart="120.00" route="route_4"/>
    <vehicle id="vehicle_41" depart="120.00" route="route_4"/>
    <vehicle id="vehicle_42" depart="120.00" route="route_4"/> -->
</routes>
